docs/ieee8500_v42_joint_pcc_reselection/overlays/MV_4688dc77d725_750KVA.dss
! ENGINEERING_SCENARIO_NOT_FIELD_VERIFIED; original DSS unchanged
new Transformer.high_mv_sta02 phases=3 windings=2 buses=[m1142863.1.2.3 high_mv_sta02_lv.1.2.3.0] conns=[delta wye] kvs=[12.47 .48] kvas=[750 750] %rs=[.5 .5] xhl=5.6623758264530624 %noloadloss=0.2 %imag=0.5 rneut=0 normhkva=750 emerghkva=750
new Transformer.high_mv_sta04 phases=3 windings=2 buses=[l2730163.1.2.3 high_mv_sta04_lv.1.2.3.0] conns=[delta wye] kvs=[12.47 .48] kvas=[750 750] %rs=[.5 .5] xhl=5.6623758264530624 %noloadloss=0.2 %imag=0.5 rneut=0 normhkva=750 emerghkva=750
new Transformer.high_mv_sta06 phases=3 windings=2 buses=[m1108298.1.2.3 high_mv_sta06_lv.1.2.3.0] conns=[delta wye] kvs=[12.47 .48] kvas=[750 750] %rs=[.5 .5] xhl=5.6623758264530624 %noloadloss=0.2 %imag=0.5 rneut=0 normhkva=750 emerghkva=750
new Transformer.high_mv_sta08 phases=3 windings=2 buses=[l3122821.1.2.3 high_mv_sta08_lv.1.2.3.0] conns=[delta wye] kvs=[12.47 .48] kvas=[750 750] %rs=[.5 .5] xhl=5.6623758264530624 %noloadloss=0.2 %imag=0.5 rneut=0 normhkva=750 emerghkva=750
new Transformer.high_mv_sta10 phases=3 windings=2 buses=[m1026830.1.2.3 high_mv_sta10_lv.1.2.3.0] conns=[delta wye] kvs=[12.47 .48] kvas=[750 750] %rs=[.5 .5] xhl=5.6623758264530624 %noloadloss=0.2 %imag=0.5 rneut=0 normhkva=750 emerghkva=750
new Transformer.high_mv_sta12 phases=3 windings=2 buses=[l3160102.1.2.3 high_mv_sta12_lv.1.2.3.0] conns=[delta wye] kvs=[12.47 .48] kvas=[750 750] %rs=[.5 .5] xhl=5.6623758264530624 %noloadloss=0.2 %imag=0.5 rneut=0 normhkva=750 emerghkva=750
